No_0-gen_results/1bvr/2025-12-23-21-35-51/
     RDKit          3D

 24 26  0  0  0  0  0  0  0  0999 V2000
    5.3038  -45.9017   53.1807 C   0  0  0  0  0  0  0  0  0  0  0  0
    5.8547  -44.8721   53.3220 C   0  0  0  0  0  0  0  0  0  0  0  0
    4.3123  -45.9723   52.0992 C   0  0  0  0  0  0  0  0  0  0  0  0
    6.3834  -44.1914   52.3200 C   0  0  0  0  0  0  0  0  0  0  0  0
    3.4744  -47.3387   51.8383 Cl  0  0  0  0  0  0  0  0  0  0  0  0
    6.9556  -42.8789   52.5558 C   0  0  0  0  0  0  0  0  0  0  0  0
    8.1486  -42.4062   51.9181 C   0  0  0  0  0  0  0  0  0  0  0  0
    8.9243  -41.4048   52.4150 C   0  0  0  0  0  0  0  0  0  0  0  0
    8.7311  -40.0760   51.8116 C   0  0  0  0  0  0  0  0  0  0  0  0
    9.0488  -39.9046   50.8251 C   0  0  0  0  0  0  0  0  0  0  0  0
    8.2670  -39.7016   49.6745 C   0  0  0  0  0  0  0  0  0  0  0  0
    6.8904  -39.6138   49.8925 C   0  0  0  0  0  0  0  0  0  0  0  0
    6.4204  -39.4552   51.2417 C   0  0  0  0  0  0  0  0  0  0  0  0
    5.0874  -39.2469   51.6598 C   0  0  0  0  0  0  0  0  0  0  0  0
    7.4369  -39.6173   52.3498 C   0  0  0  0  0  0  0  0  0  0  0  0
    4.1451  -44.8165   51.2903 C   0  0  0  0  0  0  0  0  0  0  0  0
    5.2855  -43.9792   51.3011 C   0  0  0  0  0  0  0  0  0  0  0  0
    4.6228  -40.3068   52.6462 C   0  0  0  0  0  0  0  0  0  0  0  0
    3.8066  -41.3458   52.1166 C   0  0  0  0  0  0  0  0  0  0  0  0
    3.6808  -41.5069   50.9601 O   0  0  0  0  0  0  0  0  0  0  0  0
    3.3672  -42.2246   53.0142 O   0  0  0  0  0  0  0  0  0  0  0  0
    8.4949  -43.0132   50.6870 C   0  0  0  0  0  0  0  0  0  0  0  0
    7.8683  -44.1686   50.2196 C   0  0  0  0  0  0  0  0  0  0  0  0
    6.8042  -44.7497   51.0356 C   0  0  0  0  0  0  0  0  0  0  0  0
  1  2  1  0
  1  3  1  0
  2  4  1  0
  3  5  1  0
  4  6  1  0
  6  7  1  0
  7  8  1  0
  8  9  1  0
 13 14  1  0
  3 16  1  0
  4 17  1  0
 14 18  1  0
 18 19  1  0
 19 20  2  0
 19 21  1  0
  7 22  1  0
  4 24  1  0
 23 24  1  0
 22 23  1  0
 16 17  1  0
  9 10  2  0
 10 11  1  0
 11 12  2  0
 12 13  1  0
 13 15  2  0
 15  9  1  0
M  END

$$$$
No_1-gen_results/1bvr/2025-12-23-21-35-51/
     RDKit          3D

 23 25  0  0  0  0  0  0  0  0999 V2000
    5.3038  -45.9017   53.1807 C   0  0  0  0  0  0  0  0  0  0  0  0
    5.8547  -44.8721   53.3220 C   0  0  0  0  0  0  0  0  0  0  0  0
    5.8834  -47.1283   53.1988 C   0  0  0  0  0  0  0  0  0  0  0  0
    7.2872  -44.8141   53.5343 C   0  0  0  0  0  0  0  0  0  0  0  0
    7.9489  -46.0584   53.4135 C   0  0  0  0  0  0  0  0  0  0  0  0
    7.2220  -47.1838   53.2694 C   0  0  0  0  0  0  0  0  0  0  0  0
    5.1826  -43.4723   53.4785 C   0  0  0  0  0  0  0  0  0  0  0  0
    3.8325  -43.3992   53.2171 C   0  0  0  0  0  0  0  0  0  0  0  0
    3.2602  -42.1455   52.8088 C   0  0  0  0  0  0  0  0  0  0  0  0
    4.0014  -40.9639   52.9868 C   0  0  0  0  0  0  0  0  0  0  0  0
    5.3878  -41.0453   53.4242 C   0  0  0  0  0  0  0  0  0  0  0  0
    5.9611  -42.2473   53.5682 C   0  0  0  0  0  0  0  0  0  0  0  0
    5.9293  -39.7331   53.6564 C   0  0  0  0  0  0  0  0  0  0  0  0
    6.2282  -39.3753   54.9958 C   0  0  0  0  0  0  0  0  0  0  0  0
    6.4232  -38.9638   52.6398 C   0  0  0  0  0  0  0  0  0  0  0  0
    7.4481  -39.1189   52.1153 N   0  0  0  0  0  0  0  0  0  0  0  0
    7.7125  -39.3210   50.7556 C   0  0  0  0  0  0  0  0  0  0  0  0
    9.0549  -39.1794   50.2883 C   0  0  0  0  0  0  0  0  0  0  0  0
    8.7650  -38.8349   52.6920 C   0  0  0  0  0  0  0  0  0  0  0  0
    9.8115  -39.2231   51.5397 C   0  0  0  0  0  0  0  0  0  0  0  0
    5.1725  -48.2505   53.0428 F   0  0  0  0  0  0  0  0  0  0  0  0
    6.7779  -39.5299   49.9190 O   0  0  0  0  0  0  0  0  0  0  0  0
    1.9882  -42.1461   52.5258 O   0  0  0  0  0  0  0  0  0  0  0  0
  2  7  1  0
 11 13  1  0
 13 14  2  0
 13 15  1  0
 15 16  1  0
 16 17  1  0
 17 18  1  0
 16 19  1  0
 18 20  1  0
 19 20  1  0
  3 21  1  0
 17 22  2  0
  9 23  1  0
  1  2  2  0
  2  4  1  0
  4  5  2  0
  5  6  1  0
  6  3  2  0
  3  1  1  0
  7  8  2  0
  8  9  1  0
  9 10  2  0
 10 11  1  0
 11 12  2  0
 12  7  1  0
M  END

$$$$
No_2-gen_results/1bvr/2025-12-23-21-35-51/
     RDKit          3D

 39 42  0  0  0  0  0  0  0  0999 V2000
    5.4360  -44.2335   54.2183 C   0  0  0  0  0  0  0  0  0  0  0  0
    5.6108  -45.0515   53.2214 C   0  0  0  0  0  0  0  0  0  0  0  0
    6.4834  -46.0174   53.2777 C   0  0  0  0  0  0  0  0  0  0  0  0
    6.2182  -47.2665   52.7888 C   0  0  0  0  0  0  0  0  0  0  0  0
    5.0211  -47.4171   52.1024 C   0  0  0  0  0  0  0  0  0  0  0  0
    4.9702  -47.0001   50.8242 C   0  0  0  0  0  0  0  0  0  0  0  0
    4.5039  -43.0942   54.1357 C   0  0  0  0  0  0  0  0  0  0  0  0
    3.7151  -43.0371   52.9670 C   0  0  0  0  0  0  0  0  0  0  0  0
    3.9170  -44.0070   51.9717 C   0  0  0  0  0  0  0  0  0  0  0  0
    4.7928  -45.0073   52.1302 C   0  0  0  0  0  0  0  0  0  0  0  0
    4.6910  -45.9594   51.1860 C   0  0  0  0  0  0  0  0  0  0  0  0
    4.0910  -48.2622   52.6788 C   0  0  0  0  0  0  0  0  0  0  0  0
    2.7922  -41.9031   52.8796 C   0  0  0  0  0  0  0  0  0  0  0  0
    7.0131  -46.1845   54.6129 F   0  0  0  0  0  0  0  0  0  0  0  0
    7.8344  -45.5149   52.5085 C   0  0  0  0  0  0  0  0  0  0  0  0
    8.9091  -45.4342   53.1918 O   0  0  0  0  0  0  0  0  0  0  0  0
    7.8637  -45.2214   51.3201 O   0  0  0  0  0  0  0  0  0  0  0  0
    2.9616  -41.0318   52.1661 O   0  0  0  0  0  0  0  0  0  0  0  0
    1.9276  -41.9392   53.8804 O   0  0  0  0  0  0  0  0  0  0  0  0
    5.0407  -47.8428   49.7485 C   0  0  0  0  0  0  0  0  0  0  0  0
    4.4234  -47.4168   48.6155 C   0  0  0  0  0  0  0  0  0  0  0  0
    4.3860  -48.0986   47.3564 C   0  0  0  0  0  0  0  0  0  0  0  0
    4.6676  -49.3647   47.3783 C   0  0  0  0  0  0  0  0  0  0  0  0
    5.3318  -49.9402   48.4963 C   0  0  0  0  0  0  0  0  0  0  0  0
    5.4862  -49.2006   49.6587 C   0  0  0  0  0  0  0  0  0  0  0  0
    4.5463  -50.1973   46.1582 C   0  0  0  0  0  0  0  0  0  0  0  0
    4.0129  -51.5057   46.3799 C   0  0  0  0  0  0  0  0  0  0  0  0
    3.8477  -52.3487   45.5200 C   0  0  0  0  0  0  0  0  0  0  0  0
    3.1962  -53.6942   45.7736 C   0  0  0  0  0  0  0  0  0  0  0  0
    2.9374  -53.9690   47.1281 C   0  0  0  0  0  0  0  0  0  0  0  0
    3.1444  -53.0454   48.1465 C   0  0  0  0  0  0  0  0  0  0  0  0
    3.6593  -51.8283   47.8633 C   0  0  0  0  0  0  0  0  0  0  0  0
    5.8043  -50.1820   45.4384 C   0  0  0  0  0  0  0  0  0  0  0  0
    3.3839  -49.5436   45.2731 C   0  0  0  0  0  0  0  0  0  0  0  0
    6.8172  -50.7713   45.8908 C   0  0  0  0  0  0  0  0  0  0  0  0
    8.1200  -50.7983   45.2845 C   0  0  0  0  0  0  0  0  0  0  0  0
    9.3047  -51.3121   46.0013 C   0  0  0  0  0  0  0  0  0  0  0  0
    9.2498  -51.4145   47.4268 C   0  0  0  0  0  0  0  0  0  0  0  0
    7.9934  -51.1413   48.0551 C   0  0  0  0  0  0  0  0  0  0  0  0
  2  3  1  0
  3  4  1  0
  4  5  1  0
  5  6  2  0
  6 11  1  0
 10 11  1  0
  5 12  1  0
  8 13  1  0
  3 14  1  0
  3 15  1  0
 15 16  1  0
 15 17  2  0
 13 18  1  0
 13 19  2  0
  6 20  1  0
 23 26  1  0
 26 27  1  0
 26 33  1  0
 26 34  1  0
 33 35  2  3
 35 36  1  0
 36 37  1  0
 37 38  2  3
 38 39  1  0
  1  2  2  0
  2 10  1  0
 10  9  2  0
  9  8  1  0
  8  7  2  0
  7  1  1  0
 27 28  2  0
 28 29  1  0
 29 30  2  0
 30 31  1  0
 31 32  2  0
 32 27  1  0
 20 21  2  0
 21 22  1  0
 22 23  2  0
 23 24  1  0
 24 25  2  0
 25 20  1  0
M  END

$$$$
No_3-gen_results/1bvr/2025-12-23-21-35-51/
     RDKit          3D

 12 12  0  0  0  0  0  0  0  0999 V2000
    5.4360  -44.2335   54.2183 C   0  0  0  0  0  0  0  0  0  0  0  0
    5.6505  -43.0480   54.0925 C   0  0  0  0  0  0  0  0  0  0  0  0
    4.8330  -42.2782   53.1699 C   0  0  0  0  0  0  0  0  0  0  0  0
    3.6723  -42.8743   52.7644 C   0  0  0  0  0  0  0  0  0  0  0  0
    3.5326  -44.3073   52.9687 C   0  0  0  0  0  0  0  0  0  0  0  0
    4.4096  -44.9398   53.8180 C   0  0  0  0  0  0  0  0  0  0  0  0
    5.0285  -40.8331   53.0057 C   0  0  0  0  0  0  0  0  0  0  0  0
    4.8549  -40.2710   51.8320 C   0  0  0  0  0  0  0  0  0  0  0  0
    5.4452  -39.9742   54.1032 C   0  0  0  0  0  0  0  0  0  0  0  0
    5.5237  -38.7699   54.0015 F   0  0  0  0  0  0  0  0  0  0  0  0
    6.7050  -40.5706   54.5724 F   0  0  0  0  0  0  0  0  0  0  0  0
    4.6876  -39.2294   51.5994 O   0  0  0  0  0  0  0  0  0  0  0  0
  3  7  1  0
  7  8  2  0
  7  9  1  0
  9 10  1  0
  9 11  1  0
  8 12  2  0
  1  2  2  0
  2  3  1  0
  3  4  2  0
  4  5  1  0
  5  6  2  0
  6  1  1  0
M  END

$$$$
No_4-gen_results/1bvr/2025-12-23-21-35-51/
     RDKit          3D

 12 12  0  0  0  0  0  0  0  0999 V2000
    5.4360  -44.2335   54.2183 C   0  0  0  0  0  0  0  0  0  0  0  0
    5.6505  -43.0480   54.0925 C   0  0  0  0  0  0  0  0  0  0  0  0
    4.8330  -42.2782   53.1699 C   0  0  0  0  0  0  0  0  0  0  0  0
    3.6723  -42.8743   52.7644 C   0  0  0  0  0  0  0  0  0  0  0  0
    3.5326  -44.3073   52.9687 C   0  0  0  0  0  0  0  0  0  0  0  0
    4.4096  -44.9398   53.8180 C   0  0  0  0  0  0  0  0  0  0  0  0
    5.0285  -40.8331   53.0057 C   0  0  0  0  0  0  0  0  0  0  0  0
    4.8549  -40.2710   51.8320 C   0  0  0  0  0  0  0  0  0  0  0  0
    5.4452  -39.9742   54.1032 C   0  0  0  0  0  0  0  0  0  0  0  0
    5.5237  -38.7699   54.0015 F   0  0  0  0  0  0  0  0  0  0  0  0
    6.7050  -40.5706   54.5724 F   0  0  0  0  0  0  0  0  0  0  0  0
    4.6876  -39.2294   51.5994 O   0  0  0  0  0  0  0  0  0  0  0  0
  3  7  1  0
  7  8  2  0
  7  9  1  0
  9 10  1  0
  9 11  1  0
  8 12  2  0
  1  2  2  0
  2  3  1  0
  3  4  2  0
  4  5  1  0
  5  6  2  0
  6  1  1  0
M  END

$$$$
No_5-gen_results/1bvr/2025-12-23-21-35-51/
     RDKit          3D

 12 12  0  0  0  0  0  0  0  0999 V2000
    5.4360  -44.2335   54.2183 C   0  0  0  0  0  0  0  0  0  0  0  0
    5.6505  -43.0480   54.0925 C   0  0  0  0  0  0  0  0  0  0  0  0
    4.8330  -42.2782   53.1699 C   0  0  0  0  0  0  0  0  0  0  0  0
    3.6723  -42.8743   52.7644 C   0  0  0  0  0  0  0  0  0  0  0  0
    3.5326  -44.3073   52.9687 C   0  0  0  0  0  0  0  0  0  0  0  0
    4.4096  -44.9398   53.8180 C   0  0  0  0  0  0  0  0  0  0  0  0
    5.0285  -40.8331   53.0057 C   0  0  0  0  0  0  0  0  0  0  0  0
    4.8549  -40.2710   51.8320 C   0  0  0  0  0  0  0  0  0  0  0  0
    5.4452  -39.9742   54.1032 C   0  0  0  0  0  0  0  0  0  0  0  0
    5.5237  -38.7699   54.0015 F   0  0  0  0  0  0  0  0  0  0  0  0
    6.7050  -40.5706   54.5724 F   0  0  0  0  0  0  0  0  0  0  0  0
    4.6876  -39.2294   51.5994 O   0  0  0  0  0  0  0  0  0  0  0  0
  3  7  1  0
  7  8  2  0
  7  9  1  0
  9 10  1  0
  9 11  1  0
  8 12  2  0
  1  2  2  0
  2  3  1  0
  3  4  2  0
  4  5  1  0
  5  6  2  0
  6  1  1  0
M  END

$$$$
No_6-gen_results/1bvr/2025-12-23-21-35-51/
     RDKit          3D

 12 12  0  0  0  0  0  0  0  0999 V2000
    5.4360  -44.2335   54.2183 C   0  0  0  0  0  0  0  0  0  0  0  0
    5.6505  -43.0480   54.0925 C   0  0  0  0  0  0  0  0  0  0  0  0
    4.8330  -42.2782   53.1699 C   0  0  0  0  0  0  0  0  0  0  0  0
    3.6723  -42.8743   52.7644 C   0  0  0  0  0  0  0  0  0  0  0  0
    3.5326  -44.3073   52.9687 C   0  0  0  0  0  0  0  0  0  0  0  0
    4.4096  -44.9398   53.8180 C   0  0  0  0  0  0  0  0  0  0  0  0
    5.0285  -40.8331   53.0057 C   0  0  0  0  0  0  0  0  0  0  0  0
    4.8549  -40.2710   51.8320 C   0  0  0  0  0  0  0  0  0  0  0  0
    5.4452  -39.9742   54.1032 C   0  0  0  0  0  0  0  0  0  0  0  0
    5.5237  -38.7699   54.0015 F   0  0  0  0  0  0  0  0  0  0  0  0
    6.7050  -40.5706   54.5724 F   0  0  0  0  0  0  0  0  0  0  0  0
    4.6876  -39.2294   51.5994 O   0  0  0  0  0  0  0  0  0  0  0  0
  3  7  1  0
  7  8  2  0
  7  9  1  0
  9 10  1  0
  9 11  1  0
  8 12  2  0
  1  2  2  0
  2  3  1  0
  3  4  2  0
  4  5  1  0
  5  6  2  0
  6  1  1  0
M  END

$$$$
No_7-gen_results/1bvr/2025-12-23-21-35-51/
     RDKit          3D

 18 20  0  0  0  0  0  0  0  0999 V2000
    5.2388  -45.9962   53.2781 Cl  0  0  0  0  0  0  0  0  0  0  0  0
    6.2431  -45.0075   53.2245 C   0  0  0  0  0  0  0  0  0  0  0  0
    6.5625  -44.3441   52.1172 C   0  0  0  0  0  0  0  0  0  0  0  0
    6.3164  -43.0671   52.0774 C   0  0  0  0  0  0  0  0  0  0  0  0
    6.5456  -42.2635   50.9649 C   0  0  0  0  0  0  0  0  0  0  0  0
    6.2189  -40.8785   51.0272 C   0  0  0  0  0  0  0  0  0  0  0  0
    5.6935  -40.4694   52.1424 C   0  0  0  0  0  0  0  0  0  0  0  0
    5.5157  -41.1938   53.3148 C   0  0  0  0  0  0  0  0  0  0  0  0
    5.8571  -42.4902   53.3308 C   0  0  0  0  0  0  0  0  0  0  0  0
    8.1114  -44.6735   51.8914 C   0  0  0  0  0  0  0  0  0  0  0  0
    5.9475  -45.0965   50.9107 C   0  0  0  0  0  0  0  0  0  0  0  0
    6.3378  -45.3976   49.9419 C   0  0  0  0  0  0  0  0  0  0  0  0
    7.8315  -45.4862   49.7806 C   0  0  0  0  0  0  0  0  0  0  0  0
    8.6388  -45.0838   50.7606 N   0  0  0  0  0  0  0  0  0  0  0  0
    5.2015  -39.1112   52.2412 F   0  0  0  0  0  0  0  0  0  0  0  0
    8.5197  -45.9419   48.7290 N   0  0  0  0  0  0  0  0  0  0  0  0
    7.3034  -45.7733   53.9229 F   0  0  0  0  0  0  0  0  0  0  0  0
    6.0569  -43.9311   54.2738 C   0  0  0  0  0  0  0  0  0  0  0  0
  1  2  1  0
  2  3  1  0
  3  4  1  0
  3 10  1  0
  3 11  1  0
 12 13  1  0
 13 14  1  0
 10 14  1  0
  7 15  1  0
 13 16  1  0
  2 17  1  0
  2 18  1  0
  9 18  1  0
 12 11  1  0
  4  5  2  0
  5  6  1  0
  6  7  2  0
  7  8  1  0
  8  9  2  0
  9  4  1  0
M  END

$$$$
No_8-gen_results/1bvr/2025-12-23-21-35-51/
     RDKit          3D

 18 20  0  0  0  0  0  0  0  0999 V2000
    5.2388  -45.9962   53.2781 Cl  0  0  0  0  0  0  0  0  0  0  0  0
    6.2431  -45.0075   53.2245 C   0  0  0  0  0  0  0  0  0  0  0  0
    6.5625  -44.3441   52.1172 C   0  0  0  0  0  0  0  0  0  0  0  0
    6.3164  -43.0671   52.0774 C   0  0  0  0  0  0  0  0  0  0  0  0
    6.5456  -42.2635   50.9649 C   0  0  0  0  0  0  0  0  0  0  0  0
    6.2189  -40.8785   51.0272 C   0  0  0  0  0  0  0  0  0  0  0  0
    5.6935  -40.4694   52.1424 C   0  0  0  0  0  0  0  0  0  0  0  0
    5.5157  -41.1938   53.3148 C   0  0  0  0  0  0  0  0  0  0  0  0
    5.8571  -42.4902   53.3308 C   0  0  0  0  0  0  0  0  0  0  0  0
    8.1114  -44.6735   51.8914 C   0  0  0  0  0  0  0  0  0  0  0  0
    5.9475  -45.0965   50.9107 C   0  0  0  0  0  0  0  0  0  0  0  0
    6.3378  -45.3976   49.9419 C   0  0  0  0  0  0  0  0  0  0  0  0
    7.8315  -45.4862   49.7806 C   0  0  0  0  0  0  0  0  0  0  0  0
    8.6388  -45.0838   50.7606 N   0  0  0  0  0  0  0  0  0  0  0  0
    5.2015  -39.1112   52.2412 F   0  0  0  0  0  0  0  0  0  0  0  0
    8.5197  -45.9419   48.7290 N   0  0  0  0  0  0  0  0  0  0  0  0
    7.3034  -45.7733   53.9229 F   0  0  0  0  0  0  0  0  0  0  0  0
    6.0569  -43.9311   54.2738 C   0  0  0  0  0  0  0  0  0  0  0  0
  1  2  1  0
  2  3  1  0
  3  4  1  0
  3 10  1  0
  3 11  1  0
 12 13  1  0
 13 14  1  0
 10 14  1  0
  7 15  1  0
 13 16  1  0
  2 17  1  0
  2 18  1  0
  9 18  1  0
 12 11  1  0
  4  5  2  0
  5  6  1  0
  6  7  2  0
  7  8  1  0
  8  9  2  0
  9  4  1  0
M  END

$$$$
No_9-gen_results/1bvr/2025-12-23-21-35-51/
     RDKit          3D

 26 27  0  0  0  0  0  0  0  0999 V2000
    5.3038  -45.9017   53.1807 C   0  0  0  0  0  0  0  0  0  0  0  0
    5.4033  -46.7659   52.2449 C   0  0  0  0  0  0  0  0  0  0  0  0
    4.5017  -44.6974   52.9965 C   0  0  0  0  0  0  0  0  0  0  0  0
    4.4929  -43.6570   53.9247 C   0  0  0  0  0  0  0  0  0  0  0  0
    6.5164  -47.5379   52.1225 C   0  0  0  0  0  0  0  0  0  0  0  0
    7.4769  -47.0614   51.1901 C   0  0  0  0  0  0  0  0  0  0  0  0
    7.6524  -45.6622   51.2258 C   0  0  0  0  0  0  0  0  0  0  0  0
    5.7973  -43.2128   54.1825 C   0  0  0  0  0  0  0  0  0  0  0  0
    7.8373  -44.9651   50.0070 C   0  0  0  0  0  0  0  0  0  0  0  0
    8.2951  -43.6263   50.0782 C   0  0  0  0  0  0  0  0  0  0  0  0
    6.0864  -41.8007   54.0779 C   0  0  0  0  0  0  0  0  0  0  0  0
    6.9955  -41.2934   53.1177 C   0  0  0  0  0  0  0  0  0  0  0  0
    7.4038  -40.0316   53.2106 C   0  0  0  0  0  0  0  0  0  0  0  0
    6.8046  -39.0837   54.1582 C   0  0  0  0  0  0  0  0  0  0  0  0
    5.8886  -39.5823   55.0749 C   0  0  0  0  0  0  0  0  0  0  0  0
    5.5868  -40.9759   55.0468 C   0  0  0  0  0  0  0  0  0  0  0  0
    8.4415  -39.4781   52.2718 C   0  0  0  0  0  0  0  0  0  0  0  0
    9.5638  -38.8702   52.7388 C   0  0  0  0  0  0  0  0  0  0  0  0
    8.1673  -39.6302   50.9080 C   0  0  0  0  0  0  0  0  0  0  0  0
    9.0916  -39.1842   49.9683 C   0  0  0  0  0  0  0  0  0  0  0  0
    8.3995  -42.8963   48.9218 C   0  0  0  0  0  0  0  0  0  0  0  0
    7.9145  -43.3206   47.7298 C   0  0  0  0  0  0  0  0  0  0  0  0
    7.3101  -44.6225   47.7186 C   0  0  0  0  0  0  0  0  0  0  0  0
    7.2223  -45.3887   48.8792 C   0  0  0  0  0  0  0  0  0  0  0  0
    4.2352  -47.3274   51.6408 C   0  0  0  0  0  0  0  0  0  0  0  0
    3.3820  -46.5094   51.1583 O   0  0  0  0  0  0  0  0  0  0  0  0
  1  2  1  0
  1  3  1  0
  3  4  1  0
  2  5  1  0
  5  6  1  0
  6  7  1  0
  4  8  1  0
  7  9  1  0
  8 11  1  0
 13 17  1  0
 17 18  2  0
 17 19  1  0
 19 20  2  0
  2 25  1  0
 25 26  2  0
 11 12  2  0
 12 13  1  0
 13 14  2  0
 14 15  1  0
 15 16  2  0
 16 11  1  0
  9 10  2  0
 10 21  1  0
 21 22  2  0
 22 23  1  0
 23 24  2  0
 24  9  1  0
M  END

$$$$
