No_0-gen_results/1bvr/2025-12-23-21-34-25/
     RDKit          3D

 14 15  0  0  0  0  0  0  0  0999 V2000
    5.3038  -45.9017   53.1807 C   0  0  0  0  0  0  0  0  0  0  0  0
    5.8547  -44.8721   53.3220 C   0  0  0  0  0  0  0  0  0  0  0  0
    5.4133  -46.5488   51.9660 C   0  0  0  0  0  0  0  0  0  0  0  0
    4.8109  -47.7100   51.7906 C   0  0  0  0  0  0  0  0  0  0  0  0
    4.3276  -48.1966   50.5188 C   0  0  0  0  0  0  0  0  0  0  0  0
    5.9985  -43.9686   52.6499 C   0  0  0  0  0  0  0  0  0  0  0  0
    3.3986  -49.2497   50.4222 C   0  0  0  0  0  0  0  0  0  0  0  0
    2.9382  -49.6597   49.3646 C   0  0  0  0  0  0  0  0  0  0  0  0
    6.6779  -42.6574   52.8758 C   0  0  0  0  0  0  0  0  0  0  0  0
    3.3439  -49.0162   48.1485 C   0  0  0  0  0  0  0  0  0  0  0  0
    4.2064  -47.9459   48.1872 C   0  0  0  0  0  0  0  0  0  0  0  0
    4.6722  -47.4621   49.3915 C   0  0  0  0  0  0  0  0  0  0  0  0
    5.8481  -45.7113   50.9238 C   0  0  0  0  0  0  0  0  0  0  0  0
    6.3585  -44.3632   51.3505 C   0  0  0  0  0  0  0  0  0  0  0  0
  3  4  1  0
  4  5  1  0
  6  9  1  0
  5  7  2  0
  7  8  1  0
  8 10  2  0
 10 11  1  0
 11 12  2  0
 12  5  1  0
  1  2  2  0
  2  6  1  0
  6 14  2  0
 14 13  1  0
 13  3  2  0
  3  1  1  0
M  END

$$$$
No_1-gen_results/1bvr/2025-12-23-21-34-25/
     RDKit          3D

 14 15  0  0  0  0  0  0  0  0999 V2000
    5.3038  -45.9017   53.1807 C   0  0  0  0  0  0  0  0  0  0  0  0
    5.8547  -44.8721   53.3220 C   0  0  0  0  0  0  0  0  0  0  0  0
    5.4133  -46.5488   51.9660 C   0  0  0  0  0  0  0  0  0  0  0  0
    4.8109  -47.7100   51.7906 C   0  0  0  0  0  0  0  0  0  0  0  0
    4.3276  -48.1966   50.5188 C   0  0  0  0  0  0  0  0  0  0  0  0
    5.9985  -43.9686   52.6499 C   0  0  0  0  0  0  0  0  0  0  0  0
    3.3986  -49.2497   50.4222 C   0  0  0  0  0  0  0  0  0  0  0  0
    2.9382  -49.6597   49.3646 C   0  0  0  0  0  0  0  0  0  0  0  0
    6.6779  -42.6574   52.8758 C   0  0  0  0  0  0  0  0  0  0  0  0
    3.3439  -49.0162   48.1485 C   0  0  0  0  0  0  0  0  0  0  0  0
    4.2064  -47.9459   48.1872 C   0  0  0  0  0  0  0  0  0  0  0  0
    4.6722  -47.4621   49.3915 C   0  0  0  0  0  0  0  0  0  0  0  0
    5.8481  -45.7113   50.9238 C   0  0  0  0  0  0  0  0  0  0  0  0
    6.3585  -44.3632   51.3505 C   0  0  0  0  0  0  0  0  0  0  0  0
  3  4  1  0
  4  5  1  0
  6  9  1  0
  5  7  2  0
  7  8  1  0
  8 10  2  0
 10 11  1  0
 11 12  2  0
 12  5  1  0
  1  2  2  0
  2  6  1  0
  6 14  2  0
 14 13  1  0
 13  3  2  0
  3  1  1  0
M  END

$$$$
No_2-gen_results/1bvr/2025-12-23-21-34-25/
     RDKit          3D

 14 15  0  0  0  0  0  0  0  0999 V2000
    5.3038  -45.9017   53.1807 C   0  0  0  0  0  0  0  0  0  0  0  0
    5.8547  -44.8721   53.3220 C   0  0  0  0  0  0  0  0  0  0  0  0
    5.4133  -46.5488   51.9660 C   0  0  0  0  0  0  0  0  0  0  0  0
    4.8109  -47.7100   51.7906 C   0  0  0  0  0  0  0  0  0  0  0  0
    4.3276  -48.1966   50.5188 C   0  0  0  0  0  0  0  0  0  0  0  0
    5.9985  -43.9686   52.6499 C   0  0  0  0  0  0  0  0  0  0  0  0
    3.3986  -49.2497   50.4222 C   0  0  0  0  0  0  0  0  0  0  0  0
    2.9382  -49.6597   49.3646 C   0  0  0  0  0  0  0  0  0  0  0  0
    6.6779  -42.6574   52.8758 C   0  0  0  0  0  0  0  0  0  0  0  0
    3.3439  -49.0162   48.1485 C   0  0  0  0  0  0  0  0  0  0  0  0
    4.2064  -47.9459   48.1872 C   0  0  0  0  0  0  0  0  0  0  0  0
    4.6722  -47.4621   49.3915 C   0  0  0  0  0  0  0  0  0  0  0  0
    5.8481  -45.7113   50.9238 C   0  0  0  0  0  0  0  0  0  0  0  0
    6.3585  -44.3632   51.3505 C   0  0  0  0  0  0  0  0  0  0  0  0
  3  4  1  0
  4  5  1  0
  6  9  1  0
  5  7  2  0
  7  8  1  0
  8 10  2  0
 10 11  1  0
 11 12  2  0
 12  5  1  0
  1  2  2  0
  2  6  1  0
  6 14  2  0
 14 13  1  0
 13  3  2  0
  3  1  1  0
M  END

$$$$
No_3-gen_results/1bvr/2025-12-23-21-34-25/
     RDKit          3D

 32 36  0  0  0  0  0  0  0  0999 V2000
    5.3038  -45.9017   53.1807 C   0  0  0  0  0  0  0  0  0  0  0  0
    5.4033  -46.7659   52.2449 C   0  0  0  0  0  0  0  0  0  0  0  0
    5.7237  -44.5790   52.9166 C   0  0  0  0  0  0  0  0  0  0  0  0
    5.1223  -43.7957   52.2327 C   0  0  0  0  0  0  0  0  0  0  0  0
    4.4539  -46.3966   51.1382 C   0  0  0  0  0  0  0  0  0  0  0  0
    4.7524  -44.1675   50.8049 C   0  0  0  0  0  0  0  0  0  0  0  0
    3.9398  -45.3237   50.7096 C   0  0  0  0  0  0  0  0  0  0  0  0
    3.9462  -47.7422   50.4964 C   0  0  0  0  0  0  0  0  0  0  0  0
    4.7537  -48.5807   49.9127 C   0  0  0  0  0  0  0  0  0  0  0  0
    6.0676  -48.2441   49.8770 C   0  0  0  0  0  0  0  0  0  0  0  0
    6.8956  -47.9246   51.0705 C   0  0  0  0  0  0  0  0  0  0  0  0
    6.7573  -46.8368   51.9089 C   0  0  0  0  0  0  0  0  0  0  0  0
    7.2143  -44.8293   52.4518 C   0  0  0  0  0  0  0  0  0  0  0  0
    8.1027  -43.6291   52.4823 C   0  0  0  0  0  0  0  0  0  0  0  0
    7.7137  -46.0562   52.0296 C   0  0  0  0  0  0  0  0  0  0  0  0
    7.7994  -42.3735   52.4023 C   0  0  0  0  0  0  0  0  0  0  0  0
    8.6921  -41.3398   52.4750 C   0  0  0  0  0  0  0  0  0  0  0  0
    8.3112  -39.9765   52.4776 C   0  0  0  0  0  0  0  0  0  0  0  0
    9.2525  -38.9779   52.1710 C   0  0  0  0  0  0  0  0  0  0  0  0
    4.3262  -42.6163   52.7579 C   0  0  0  0  0  0  0  0  0  0  0  0
    3.7065  -42.4074   53.6930 C   0  0  0  0  0  0  0  0  0  0  0  0
    4.6453  -41.3201   51.9216 C   0  0  0  0  0  0  0  0  0  0  0  0
    4.2979  -49.8178   49.4068 C   0  0  0  0  0  0  0  0  0  0  0  0
    3.5080  -50.6992   50.1273 C   0  0  0  0  0  0  0  0  0  0  0  0
    3.0707  -51.9658   49.6356 C   0  0  0  0  0  0  0  0  0  0  0  0
    3.3677  -52.3444   48.3292 C   0  0  0  0  0  0  0  0  0  0  0  0
    4.1401  -51.4302   47.5634 C   0  0  0  0  0  0  0  0  0  0  0  0
    4.6837  -50.1209   48.0525 C   0  0  0  0  0  0  0  0  0  0  0  0
    4.7601  -40.1513   52.6560 C   0  0  0  0  0  0  0  0  0  0  0  0
    5.5814  -39.4164   52.9934 C   0  0  0  0  0  0  0  0  0  0  0  0
    6.9182  -39.3708   52.7788 C   0  0  0  0  0  0  0  0  0  0  0  0
    8.0115  -48.7769   51.1535 O   0  0  0  0  0  0  0  0  0  0  0  0
  1  2  1  0
  1  3  1  0
  3  4  1  0
  2  5  1  0
  4  6  1  0
  5  7  1  0
  6  7  1  0
  5  8  1  0
  8  9  2  0
  9 10  1  0
 10 11  1  0
 11 12  1  0
  2 12  1  0
  3 13  1  0
 13 14  1  0
 13 15  1  0
 12 15  1  0
 14 16  2  3
 16 17  1  0
 17 18  1  0
 18 19  1  0
  4 20  1  0
 20 21  1  0
 20 22  1  0
  9 23  1  0
 22 29  2  3
 29 30  1  0
 18 31  1  0
 30 31  2  3
 11 32  2  0
 23 24  2  0
 24 25  1  0
 25 26  2  0
 26 27  1  0
 27 28  2  0
 28 23  1  0
M  END

$$$$
No_4-gen_results/1bvr/2025-12-23-21-34-25/
     RDKit          3D

 40 44  0  0  0  0  0  0  0  0999 V2000
    5.3038  -45.9017   53.1807 C   0  0  0  0  0  0  0  0  0  0  0  0
    5.4033  -46.7659   52.2449 C   0  0  0  0  0  0  0  0  0  0  0  0
    4.5017  -44.6974   52.9965 C   0  0  0  0  0  0  0  0  0  0  0  0
    4.4929  -43.6570   53.9247 C   0  0  0  0  0  0  0  0  0  0  0  0
    6.5164  -47.5379   52.1225 C   0  0  0  0  0  0  0  0  0  0  0  0
    3.8162  -42.4559   53.4972 C   0  0  0  0  0  0  0  0  0  0  0  0
    3.1499  -42.4882   52.2226 C   0  0  0  0  0  0  0  0  0  0  0  0
    3.7341  -42.9662   51.3338 C   0  0  0  0  0  0  0  0  0  0  0  0
    4.2408  -44.4438   51.6102 C   0  0  0  0  0  0  0  0  0  0  0  0
    6.7215  -48.3652   51.0314 C   0  0  0  0  0  0  0  0  0  0  0  0
    5.7745  -48.5924   50.0567 C   0  0  0  0  0  0  0  0  0  0  0  0
    4.6227  -47.8557   50.2056 C   0  0  0  0  0  0  0  0  0  0  0  0
    4.4280  -46.9438   51.2386 C   0  0  0  0  0  0  0  0  0  0  0  0
    4.1498  -45.5486   50.7001 C   0  0  0  0  0  0  0  0  0  0  0  0
    3.4727  -48.2418   49.3717 C   0  0  0  0  0  0  0  0  0  0  0  0
    2.9830  -49.5595   49.3274 C   0  0  0  0  0  0  0  0  0  0  0  0
    1.9219  -49.8548   48.7768 C   0  0  0  0  0  0  0  0  0  0  0  0
    0.7460  -49.0567   49.0367 C   0  0  0  0  0  0  0  0  0  0  0  0
   -0.5757  -49.5628   49.0412 C   0  0  0  0  0  0  0  0  0  0  0  0
   -0.9241  -50.3284   47.9012 C   0  0  0  0  0  0  0  0  0  0  0  0
    1.6115  -50.3407   47.5370 C   0  0  0  0  0  0  0  0  0  0  0  0
    0.2555  -50.9545   47.2333 C   0  0  0  0  0  0  0  0  0  0  0  0
   -2.1112  -50.7646   47.6582 N   0  0  0  0  0  0  0  0  0  0  0  0
    5.8777  -46.0494   54.3790 O   0  0  0  0  0  0  0  0  0  0  0  0
    3.0152  -50.1157   50.8156 C   0  0  0  0  0  0  0  0  0  0  0  0
    2.6325  -51.4830   50.8563 C   0  0  0  0  0  0  0  0  0  0  0  0
    3.0192  -52.3600   50.5505 C   0  0  0  0  0  0  0  0  0  0  0  0
    1.3477  -51.6088   51.7456 C   0  0  0  0  0  0  0  0  0  0  0  0
    0.1685  -50.9659   51.5184 C   0  0  0  0  0  0  0  0  0  0  0  0
   -1.0201  -51.2873   52.1705 C   0  0  0  0  0  0  0  0  0  0  0  0
   -0.9351  -52.2301   53.2335 C   0  0  0  0  0  0  0  0  0  0  0  0
    0.3331  -52.8512   53.5391 C   0  0  0  0  0  0  0  0  0  0  0  0
    1.4099  -52.6369   52.8074 C   0  0  0  0  0  0  0  0  0  0  0  0
    2.3292  -50.1156   46.4528 C   0  0  0  0  0  0  0  0  0  0  0  0
    2.8291  -53.5556   53.0335 Cl  0  0  0  0  0  0  0  0  0  0  0  0
   -2.7496  -51.4813   47.0681 C   0  0  0  0  0  0  0  0  0  0  0  0
   -4.1314  -51.6009   47.2465 N   0  0  0  0  0  0  0  0  0  0  0  0
   -2.7850  -51.4157   45.7698 F   0  0  0  0  0  0  0  0  0  0  0  0
    3.4160  -49.2370   46.4476 C   0  0  0  0  0  0  0  0  0  0  0  0
    4.1791  -48.9826   45.3070 C   0  0  0  0  0  0  0  0  0  0  0  0
  1  2  1  0
  1  3  1  0
 13 14  1  0
  9 14  1  0
 12 15  1  0
 15 16  1  0
 16 17  1  0
 20 23  1  0
  1 24  2  0
 16 25  1  0
 25 26  1  0
 26 27  2  0
 26 28  1  0
 21 34  1  0
 33 35  1  0
 23 36  1  0
 36 37  2  0
 36 38  1  0
 34 39  1  0
 39 40  2  0
  3  4  2  0
  4  6  1  0
  6  7  2  0
  7  8  1  0
  8  9  2  0
  9  3  1  0
 17 18  2  0
 18 19  1  0
 19 20  2  0
 20 22  1  0
 22 21  2  0
 21 17  1  0
  2  5  2  0
  5 10  1  0
 10 11  2  0
 11 12  1  0
 12 13  2  0
 13  2  1  0
 28 29  2  0
 29 30  1  0
 30 31  2  0
 31 32  1  0
 32 33  2  0
 33 28  1  0
M  END

$$$$
No_5-gen_results/1bvr/2025-12-23-21-34-25/
     RDKit          3D

 40 44  0  0  0  0  0  0  0  0999 V2000
    5.3038  -45.9017   53.1807 C   0  0  0  0  0  0  0  0  0  0  0  0
    5.4033  -46.7659   52.2449 C   0  0  0  0  0  0  0  0  0  0  0  0
    4.5017  -44.6974   52.9965 C   0  0  0  0  0  0  0  0  0  0  0  0
    4.4929  -43.6570   53.9247 C   0  0  0  0  0  0  0  0  0  0  0  0
    6.5164  -47.5379   52.1225 C   0  0  0  0  0  0  0  0  0  0  0  0
    3.8162  -42.4559   53.4972 C   0  0  0  0  0  0  0  0  0  0  0  0
    3.1499  -42.4882   52.2226 C   0  0  0  0  0  0  0  0  0  0  0  0
    3.7341  -42.9662   51.3338 C   0  0  0  0  0  0  0  0  0  0  0  0
    4.2408  -44.4438   51.6102 C   0  0  0  0  0  0  0  0  0  0  0  0
    6.7215  -48.3652   51.0314 C   0  0  0  0  0  0  0  0  0  0  0  0
    5.7745  -48.5924   50.0567 C   0  0  0  0  0  0  0  0  0  0  0  0
    4.6227  -47.8557   50.2056 C   0  0  0  0  0  0  0  0  0  0  0  0
    4.4280  -46.9438   51.2386 C   0  0  0  0  0  0  0  0  0  0  0  0
    4.1498  -45.5486   50.7001 C   0  0  0  0  0  0  0  0  0  0  0  0
    3.4727  -48.2418   49.3717 C   0  0  0  0  0  0  0  0  0  0  0  0
    2.9830  -49.5595   49.3274 C   0  0  0  0  0  0  0  0  0  0  0  0
    1.9219  -49.8548   48.7768 C   0  0  0  0  0  0  0  0  0  0  0  0
    0.7460  -49.0567   49.0367 C   0  0  0  0  0  0  0  0  0  0  0  0
   -0.5757  -49.5628   49.0412 C   0  0  0  0  0  0  0  0  0  0  0  0
   -0.9241  -50.3284   47.9012 C   0  0  0  0  0  0  0  0  0  0  0  0
    1.6115  -50.3407   47.5370 C   0  0  0  0  0  0  0  0  0  0  0  0
    0.2555  -50.9545   47.2333 C   0  0  0  0  0  0  0  0  0  0  0  0
   -2.1112  -50.7646   47.6582 N   0  0  0  0  0  0  0  0  0  0  0  0
    5.8777  -46.0494   54.3790 O   0  0  0  0  0  0  0  0  0  0  0  0
    3.0152  -50.1157   50.8156 C   0  0  0  0  0  0  0  0  0  0  0  0
    2.6325  -51.4830   50.8563 C   0  0  0  0  0  0  0  0  0  0  0  0
    3.0192  -52.3600   50.5505 C   0  0  0  0  0  0  0  0  0  0  0  0
    1.3477  -51.6088   51.7456 C   0  0  0  0  0  0  0  0  0  0  0  0
    0.1685  -50.9659   51.5184 C   0  0  0  0  0  0  0  0  0  0  0  0
   -1.0201  -51.2873   52.1705 C   0  0  0  0  0  0  0  0  0  0  0  0
   -0.9351  -52.2301   53.2335 C   0  0  0  0  0  0  0  0  0  0  0  0
    0.3331  -52.8512   53.5391 C   0  0  0  0  0  0  0  0  0  0  0  0
    1.4099  -52.6369   52.8074 C   0  0  0  0  0  0  0  0  0  0  0  0
    2.3292  -50.1156   46.4528 C   0  0  0  0  0  0  0  0  0  0  0  0
    2.8291  -53.5556   53.0335 Cl  0  0  0  0  0  0  0  0  0  0  0  0
   -2.7496  -51.4813   47.0681 C   0  0  0  0  0  0  0  0  0  0  0  0
   -4.1314  -51.6009   47.2465 N   0  0  0  0  0  0  0  0  0  0  0  0
   -2.7850  -51.4157   45.7698 F   0  0  0  0  0  0  0  0  0  0  0  0
    3.4160  -49.2370   46.4476 C   0  0  0  0  0  0  0  0  0  0  0  0
    4.1791  -48.9826   45.3070 C   0  0  0  0  0  0  0  0  0  0  0  0
  1  2  1  0
  1  3  1  0
 13 14  1  0
  9 14  1  0
 12 15  1  0
 15 16  1  0
 16 17  1  0
 20 23  1  0
  1 24  2  0
 16 25  1  0
 25 26  1  0
 26 27  2  0
 26 28  1  0
 21 34  1  0
 33 35  1  0
 23 36  1  0
 36 37  2  0
 36 38  1  0
 34 39  1  0
 39 40  2  0
  3  4  2  0
  4  6  1  0
  6  7  2  0
  7  8  1  0
  8  9  2  0
  9  3  1  0
 17 18  2  0
 18 19  1  0
 19 20  2  0
 20 22  1  0
 22 21  2  0
 21 17  1  0
  2  5  2  0
  5 10  1  0
 10 11  2  0
 11 12  1  0
 12 13  2  0
 13  2  1  0
 28 29  2  0
 29 30  1  0
 30 31  2  0
 31 32  1  0
 32 33  2  0
 33 28  1  0
M  END

$$$$
No_6-gen_results/1bvr/2025-12-23-21-34-25/
     RDKit          3D

 17 18  0  0  0  0  0  0  0  0999 V2000
    5.2388  -45.9962   53.2781 Cl  0  0  0  0  0  0  0  0  0  0  0  0
    5.1987  -46.3775   51.9164 C   0  0  0  0  0  0  0  0  0  0  0  0
    5.8528  -47.1037   51.3972 C   0  0  0  0  0  0  0  0  0  0  0  0
    5.7191  -47.5889   50.0697 C   0  0  0  0  0  0  0  0  0  0  0  0
    4.7059  -47.0366   49.3298 C   0  0  0  0  0  0  0  0  0  0  0  0
    3.8615  -46.1632   49.9520 C   0  0  0  0  0  0  0  0  0  0  0  0
    4.0075  -45.8052   51.2721 C   0  0  0  0  0  0  0  0  0  0  0  0
    4.4616  -47.4206   47.9440 C   0  0  0  0  0  0  0  0  0  0  0  0
    3.4485  -48.1793   47.6784 O   0  0  0  0  0  0  0  0  0  0  0  0
    5.1755  -46.9413   46.9757 O   0  0  0  0  0  0  0  0  0  0  0  0
    6.9703  -47.7420   52.0970 F   0  0  0  0  0  0  0  0  0  0  0  0
    2.6550  -48.8632   48.4437 C   0  0  0  0  0  0  0  0  0  0  0  0
    1.3880  -49.2821   47.9042 C   0  0  0  0  0  0  0  0  0  0  0  0
    0.4634  -49.9324   48.7708 C   0  0  0  0  0  0  0  0  0  0  0  0
    0.8250  -50.2419   49.8944 C   0  0  0  0  0  0  0  0  0  0  0  0
    2.0144  -49.8624   50.5659 C   0  0  0  0  0  0  0  0  0  0  0  0
    2.8991  -49.1707   49.8290 C   0  0  0  0  0  0  0  0  0  0  0  0
  1  2  1  0
  5  8  1  0
  8  9  1  0
  8 10  2  0
  3 11  1  0
  9 12  1  0
 12 13  2  0
 13 14  1  0
 14 15  2  0
 15 16  1  0
 16 17  2  0
 17 12  1  0
  2  3  2  0
  3  4  1  0
  4  5  2  0
  5  6  1  0
  6  7  2  0
  7  2  1  0
M  END

$$$$
No_7-gen_results/1bvr/2025-12-23-21-34-25/
     RDKit          3D

 19 20  0  0  0  0  0  0  0  0999 V2000
    5.3038  -45.9017   53.1807 C   0  0  0  0  0  0  0  0  0  0  0  0
    5.4033  -46.7659   52.2449 C   0  0  0  0  0  0  0  0  0  0  0  0
    5.7237  -44.5790   52.9166 C   0  0  0  0  0  0  0  0  0  0  0  0
    6.0664  -43.7801   53.9616 C   0  0  0  0  0  0  0  0  0  0  0  0
    4.5846  -46.7082   51.1586 C   0  0  0  0  0  0  0  0  0  0  0  0
    3.6789  -46.2527   51.3305 C   0  0  0  0  0  0  0  0  0  0  0  0
    6.9343  -46.9551   51.8764 C   0  0  0  0  0  0  0  0  0  0  0  0
    6.6755  -42.4470   53.7654 C   0  0  0  0  0  0  0  0  0  0  0  0
    7.1737  -42.2527   52.4383 C   0  0  0  0  0  0  0  0  0  0  0  0
    7.2334  -47.8692   50.8039 C   0  0  0  0  0  0  0  0  0  0  0  0
    6.8807  -43.1854   51.4433 C   0  0  0  0  0  0  0  0  0  0  0  0
    6.3498  -44.4147   51.7631 C   0  0  0  0  0  0  0  0  0  0  0  0
    7.3243  -47.5085   49.6803 C   0  0  0  0  0  0  0  0  0  0  0  0
    7.5795  -48.5384   48.6356 C   0  0  0  0  0  0  0  0  0  0  0  0
    8.9005  -48.9577   48.3875 C   0  0  0  0  0  0  0  0  0  0  0  0
    9.1503  -50.0548   47.4644 C   0  0  0  0  0  0  0  0  0  0  0  0
    8.0602  -50.6646   46.8692 C   0  0  0  0  0  0  0  0  0  0  0  0
    6.6544  -49.3201   48.0612 C   0  0  0  0  0  0  0  0  0  0  0  0
    6.8201  -50.3190   47.2133 C   0  0  0  0  0  0  0  0  0  0  0  0
  1  2  1  0
  1  3  1  0
  2  5  1  0
  5  6  1  0
  2  7  1  0
  7 10  1  0
 10 13  2  3
 13 14  1  0
  3  4  2  0
  4  8  1  0
  8  9  2  0
  9 11  1  0
 11 12  2  0
 12  3  1  0
 14 15  2  0
 15 16  1  0
 16 17  2  0
 17 19  1  0
 19 18  2  0
 18 14  1  0
M  END

$$$$
No_8-gen_results/1bvr/2025-12-23-21-34-25/
     RDKit          3D

 21 22  0  0  0  0  0  0  0  0999 V2000
    5.3038  -45.9017   53.1807 C   0  0  0  0  0  0  0  0  0  0  0  0
    5.4033  -46.7659   52.2449 C   0  0  0  0  0  0  0  0  0  0  0  0
    5.7237  -44.5790   52.9166 C   0  0  0  0  0  0  0  0  0  0  0  0
    6.0664  -43.7801   53.9616 C   0  0  0  0  0  0  0  0  0  0  0  0
    5.9556  -47.8224   52.2282 C   0  0  0  0  0  0  0  0  0  0  0  0
    6.7653  -48.0921   51.1119 C   0  0  0  0  0  0  0  0  0  0  0  0
    6.2259  -48.0489   49.8565 C   0  0  0  0  0  0  0  0  0  0  0  0
    5.3204  -46.9296   49.7299 C   0  0  0  0  0  0  0  0  0  0  0  0
    4.8049  -46.3334   50.8861 C   0  0  0  0  0  0  0  0  0  0  0  0
    5.9571  -42.2681   53.8835 C   0  0  0  0  0  0  0  0  0  0  0  0
    6.1975  -41.6648   53.0675 C   0  0  0  0  0  0  0  0  0  0  0  0
    6.0721  -42.4256   51.7542 C   0  0  0  0  0  0  0  0  0  0  0  0
    5.7573  -43.8385   51.7052 C   0  0  0  0  0  0  0  0  0  0  0  0
    6.3105  -40.1980   52.9616 C   0  0  0  0  0  0  0  0  0  0  0  0
    7.2025  -39.4843   53.6532 C   0  0  0  0  0  0  0  0  0  0  0  0
    5.2906  -39.4769   52.2204 C   0  0  0  0  0  0  0  0  0  0  0  0
    6.9923  -38.6718   54.6419 C   0  0  0  0  0  0  0  0  0  0  0  0
    8.5914  -39.6279   53.1595 C   0  0  0  0  0  0  0  0  0  0  0  0
    6.4531  -48.9366   48.8239 C   0  0  0  0  0  0  0  0  0  0  0  0
    5.4028  -49.7117   48.3023 C   0  0  0  0  0  0  0  0  0  0  0  0
    5.5889  -50.6567   47.3403 C   0  0  0  0  0  0  0  0  0  0  0  0
  1  2  1  0
  1  3  1  0
  2  5  1  0
  5  6  1  0
  6  7  1  0
  7  8  1  0
  2  9  1  0
  8  9  1  0
 11 14  1  0
 14 15  1  0
 14 16  1  0
 15 17  1  0
 15 18  1  0
  7 19  1  0
 19 20  1  0
 20 21  2  0
  3  4  2  0
  4 10  1  0
 10 11  2  0
 11 12  1  0
 12 13  2  0
 13  3  1  0
M  END

$$$$
No_9-gen_results/1bvr/2025-12-23-21-34-25/
     RDKit          3D

 21 22  0  0  0  0  0  0  0  0999 V2000
    5.3038  -45.9017   53.1807 C   0  0  0  0  0  0  0  0  0  0  0  0
    5.4033  -46.7659   52.2449 C   0  0  0  0  0  0  0  0  0  0  0  0
    5.7237  -44.5790   52.9166 C   0  0  0  0  0  0  0  0  0  0  0  0
    6.0664  -43.7801   53.9616 C   0  0  0  0  0  0  0  0  0  0  0  0
    5.9556  -47.8224   52.2282 C   0  0  0  0  0  0  0  0  0  0  0  0
    6.7653  -48.0921   51.1119 C   0  0  0  0  0  0  0  0  0  0  0  0
    6.2259  -48.0489   49.8565 C   0  0  0  0  0  0  0  0  0  0  0  0
    5.3204  -46.9296   49.7299 C   0  0  0  0  0  0  0  0  0  0  0  0
    4.8049  -46.3334   50.8861 C   0  0  0  0  0  0  0  0  0  0  0  0
    5.9571  -42.2681   53.8835 C   0  0  0  0  0  0  0  0  0  0  0  0
    6.1975  -41.6648   53.0675 C   0  0  0  0  0  0  0  0  0  0  0  0
    6.0721  -42.4256   51.7542 C   0  0  0  0  0  0  0  0  0  0  0  0
    5.7573  -43.8385   51.7052 C   0  0  0  0  0  0  0  0  0  0  0  0
    6.3105  -40.1980   52.9616 C   0  0  0  0  0  0  0  0  0  0  0  0
    7.2025  -39.4843   53.6532 C   0  0  0  0  0  0  0  0  0  0  0  0
    5.2906  -39.4769   52.2204 C   0  0  0  0  0  0  0  0  0  0  0  0
    6.9923  -38.6718   54.6419 C   0  0  0  0  0  0  0  0  0  0  0  0
    8.5914  -39.6279   53.1595 C   0  0  0  0  0  0  0  0  0  0  0  0
    6.4531  -48.9366   48.8239 C   0  0  0  0  0  0  0  0  0  0  0  0
    5.4028  -49.7117   48.3023 C   0  0  0  0  0  0  0  0  0  0  0  0
    5.5889  -50.6567   47.3403 C   0  0  0  0  0  0  0  0  0  0  0  0
  1  2  1  0
  1  3  1  0
  2  5  1  0
  5  6  1  0
  6  7  1  0
  7  8  1  0
  2  9  1  0
  8  9  1  0
 11 14  1  0
 14 15  1  0
 14 16  1  0
 15 17  1  0
 15 18  1  0
  7 19  1  0
 19 20  1  0
 20 21  2  0
  3  4  2  0
  4 10  1  0
 10 11  2  0
 11 12  1  0
 12 13  2  0
 13  3  1  0
M  END

$$$$
