No_0-gen_results/1bvr/2025-12-23-21-42-46/
     RDKit          3D

 23 24  0  0  0  0  0  0  0  0999 V2000
    5.3038  -45.9017   53.1807 C   0  0  0  0  0  0  0  0  0  0  0  0
    5.8547  -44.8721   53.3220 C   0  0  0  0  0  0  0  0  0  0  0  0
    4.2764  -45.9199   52.2274 N   0  0  0  0  0  0  0  0  0  0  0  0
    6.2630  -44.0830   52.3727 C   0  0  0  0  0  0  0  0  0  0  0  0
    5.2547  -43.8391   51.3927 C   0  0  0  0  0  0  0  0  0  0  0  0
    3.5382  -47.0117   51.8255 C   0  0  0  0  0  0  0  0  0  0  0  0
    4.6447  -45.1475   50.9808 C   0  0  0  0  0  0  0  0  0  0  0  0
    7.0113  -42.7189   52.7107 C   0  0  0  0  0  0  0  0  0  0  0  0
    7.2460  -41.6904   52.8041 C   0  0  0  0  0  0  0  0  0  0  0  0
    7.8308  -40.3359   52.9404 C   0  0  0  0  0  0  0  0  0  0  0  0
    6.9660  -39.4439   53.5563 C   0  0  0  0  0  0  0  0  0  0  0  0
    7.4622  -38.3918   54.3326 C   0  0  0  0  0  0  0  0  0  0  0  0
    5.5709  -39.4038   53.1442 C   0  0  0  0  0  0  0  0  0  0  0  0
    4.0554  -48.0090   50.9285 C   0  0  0  0  0  0  0  0  0  0  0  0
    3.2207  -48.8824   50.3854 C   0  0  0  0  0  0  0  0  0  0  0  0
    2.4877  -49.6564   51.2298 C   0  0  0  0  0  0  0  0  0  0  0  0
    1.3892  -50.5512   50.8287 C   0  0  0  0  0  0  0  0  0  0  0  0
    0.7706  -51.4624   51.6667 C   0  0  0  0  0  0  0  0  0  0  0  0
   -0.5684  -51.9295   51.3423 C   0  0  0  0  0  0  0  0  0  0  0  0
   -1.4808  -52.4430   52.1608 C   0  0  0  0  0  0  0  0  0  0  0  0
   -0.9720  -52.6996   53.5198 C   0  0  0  0  0  0  0  0  0  0  0  0
    0.4026  -52.4701   53.8116 C   0  0  0  0  0  0  0  0  0  0  0  0
    1.2013  -51.8156   52.9535 C   0  0  0  0  0  0  0  0  0  0  0  0
  1  2  1  0
  1  3  1  0
  2  4  1  0
  4  5  1  0
  3  6  1  0
  3  7  1  0
  5  7  1  0
  4  8  1  0
  8  9  3  0
  9 10  1  0
 10 11  1  0
 11 12  2  0
 11 13  1  0
  6 14  1  0
 14 15  1  0
 15 16  1  0
 16 17  2  3
 17 18  1  0
 18 19  2  0
 19 20  1  0
 20 21  2  0
 21 22  1  0
 22 23  2  0
 23 18  1  0
M  END

$$$$
No_1-gen_results/1bvr/2025-12-23-21-42-46/
     RDKit          3D

 12 13  0  0  0  0  0  0  0  0999 V2000
    5.3038  -45.9017   53.1807 C   0  0  0  0  0  0  0  0  0  0  0  0
    5.8547  -44.8721   53.3220 C   0  0  0  0  0  0  0  0  0  0  0  0
    5.4133  -46.5488   51.9660 C   0  0  0  0  0  0  0  0  0  0  0  0
    6.7635  -44.1930   52.5371 C   0  0  0  0  0  0  0  0  0  0  0  0
    6.2307  -45.9571   51.0094 C   0  0  0  0  0  0  0  0  0  0  0  0
    6.9308  -44.8469   51.3257 C   0  0  0  0  0  0  0  0  0  0  0  0
    4.5950  -47.7518   51.6522 C   0  0  0  0  0  0  0  0  0  0  0  0
    4.7915  -48.5595   50.7497 C   0  0  0  0  0  0  0  0  0  0  0  0
    4.0623  -49.2899   50.2385 C   0  0  0  0  0  0  0  0  0  0  0  0
    2.7047  -49.5465   50.7922 C   0  0  0  0  0  0  0  0  0  0  0  0
    2.3074  -48.5564   51.7675 C   0  0  0  0  0  0  0  0  0  0  0  0
    3.1569  -47.5941   52.1275 C   0  0  0  0  0  0  0  0  0  0  0  0
  3  7  1  0
  1  2  2  0
  2  4  1  0
  4  6  2  0
  6  5  1  0
  5  3  2  0
  3  1  1  0
  7  8  2  0
  8  9  1  0
  9 10  2  0
 10 11  1  0
 11 12  2  0
 12  7  1  0
M  END

$$$$
No_2-gen_results/1bvr/2025-12-23-21-42-46/
     RDKit          3D

 16 17  0  0  0  0  0  0  0  0999 V2000
    5.3038  -45.9017   53.1807 C   0  0  0  0  0  0  0  0  0  0  0  0
    5.4033  -46.7659   52.2449 C   0  0  0  0  0  0  0  0  0  0  0  0
    4.5017  -44.6974   52.9965 C   0  0  0  0  0  0  0  0  0  0  0  0
    4.4929  -43.6570   53.9247 C   0  0  0  0  0  0  0  0  0  0  0  0
    5.5775  -46.3875   51.0352 C   0  0  0  0  0  0  0  0  0  0  0  0
    4.8341  -45.1467   50.6664 C   0  0  0  0  0  0  0  0  0  0  0  0
    4.5419  -44.2375   51.6866 C   0  0  0  0  0  0  0  0  0  0  0  0
    3.9245  -42.9890   51.4189 C   0  0  0  0  0  0  0  0  0  0  0  0
    4.1941  -41.9351   50.8177 C   0  0  0  0  0  0  0  0  0  0  0  0
    2.5498  -42.7764   52.2387 C   0  0  0  0  0  0  0  0  0  0  0  0
    6.7232  -47.7734   52.6101 C   0  0  0  0  0  0  0  0  0  0  0  0
    2.9438  -43.1317   53.7049 C   0  0  0  0  0  0  0  0  0  0  0  0
    3.9814  -40.7503   51.0706 O   0  0  0  0  0  0  0  0  0  0  0  0
    5.0100  -42.1111   49.6929 O   0  0  0  0  0  0  0  0  0  0  0  0
    6.7322  -48.9299   52.0373 O   0  0  0  0  0  0  0  0  0  0  0  0
    7.7207  -47.2226   53.1479 O   0  0  0  0  0  0  0  0  0  0  0  0
  3  4  1  0
  7  8  1  0
  8  9  1  0
  8 10  1  0
  2 11  1  0
  4 12  1  0
 10 12  1  0
  9 13  1  0
  9 14  2  0
 11 15  1  0
 11 16  2  0
  1  2  2  0
  2  5  1  0
  5  6  2  0
  6  7  1  0
  7  3  2  0
  3  1  1  0
M  END

$$$$
No_3-gen_results/1bvr/2025-12-23-21-42-46/
     RDKit          3D

 16 17  0  0  0  0  0  0  0  0999 V2000
    5.3038  -45.9017   53.1807 C   0  0  0  0  0  0  0  0  0  0  0  0
    5.4033  -46.7659   52.2449 C   0  0  0  0  0  0  0  0  0  0  0  0
    4.5017  -44.6974   52.9965 C   0  0  0  0  0  0  0  0  0  0  0  0
    4.4929  -43.6570   53.9247 C   0  0  0  0  0  0  0  0  0  0  0  0
    5.5775  -46.3875   51.0352 C   0  0  0  0  0  0  0  0  0  0  0  0
    4.8341  -45.1467   50.6664 C   0  0  0  0  0  0  0  0  0  0  0  0
    4.5419  -44.2375   51.6866 C   0  0  0  0  0  0  0  0  0  0  0  0
    3.9245  -42.9890   51.4189 C   0  0  0  0  0  0  0  0  0  0  0  0
    4.1941  -41.9351   50.8177 C   0  0  0  0  0  0  0  0  0  0  0  0
    2.5498  -42.7764   52.2387 C   0  0  0  0  0  0  0  0  0  0  0  0
    6.7232  -47.7734   52.6101 C   0  0  0  0  0  0  0  0  0  0  0  0
    2.9438  -43.1317   53.7049 C   0  0  0  0  0  0  0  0  0  0  0  0
    3.9814  -40.7503   51.0706 O   0  0  0  0  0  0  0  0  0  0  0  0
    5.0100  -42.1111   49.6929 O   0  0  0  0  0  0  0  0  0  0  0  0
    6.7322  -48.9299   52.0373 O   0  0  0  0  0  0  0  0  0  0  0  0
    7.7207  -47.2226   53.1479 O   0  0  0  0  0  0  0  0  0  0  0  0
  3  4  1  0
  7  8  1  0
  8  9  1  0
  8 10  1  0
  2 11  1  0
  4 12  1  0
 10 12  1  0
  9 13  1  0
  9 14  2  0
 11 15  1  0
 11 16  2  0
  1  2  2  0
  2  5  1  0
  5  6  2  0
  6  7  1  0
  7  3  2  0
  3  1  1  0
M  END

$$$$
No_4-gen_results/1bvr/2025-12-23-21-42-46/
     RDKit          3D

 17 17  0  0  0  0  0  0  0  0999 V2000
    5.4360  -44.2335   54.2183 C   0  0  0  0  0  0  0  0  0  0  0  0
    5.6108  -45.0515   53.2214 C   0  0  0  0  0  0  0  0  0  0  0  0
    6.4834  -46.0174   53.2777 C   0  0  0  0  0  0  0  0  0  0  0  0
    7.6344  -45.7898   52.9762 C   0  0  0  0  0  0  0  0  0  0  0  0
    5.8065  -42.8780   53.9938 C   0  0  0  0  0  0  0  0  0  0  0  0
    5.7857  -42.3637   52.8064 C   0  0  0  0  0  0  0  0  0  0  0  0
    5.4364  -43.1160   51.7697 C   0  0  0  0  0  0  0  0  0  0  0  0
    5.5006  -44.5729   51.9388 C   0  0  0  0  0  0  0  0  0  0  0  0
    5.8967  -47.3121   52.5060 C   0  0  0  0  0  0  0  0  0  0  0  0
    4.6631  -47.6150   52.4417 C   0  0  0  0  0  0  0  0  0  0  0  0
    4.0487  -48.6140   51.6767 C   0  0  0  0  0  0  0  0  0  0  0  0
    4.9344  -49.3288   50.8401 C   0  0  0  0  0  0  0  0  0  0  0  0
    6.3116  -49.0299   50.8894 C   0  0  0  0  0  0  0  0  0  0  0  0
    6.8331  -48.0596   51.6652 C   0  0  0  0  0  0  0  0  0  0  0  0
    8.0667  -47.8035   51.6792 F   0  0  0  0  0  0  0  0  0  0  0  0
    7.7054  -48.7569   51.9295 Cl  0  0  0  0  0  0  0  0  0  0  0  0
    6.3800  -48.8063   49.5039 C   0  0  0  0  0  0  0  0  0  0  0  0
  1  2  1  0
  2  3  1  0
  3  4  2  0
  1  5  1  0
  5  6  1  0
  6  7  1  0
  2  8  1  0
  7  8  1  0
  3  9  1  0
  9 10  2  3
 10 11  1  0
 11 12  2  3
 12 13  1  0
  9 14  1  0
 14 15  1  0
 14 16  1  0
 13 17  2  0
M  END

$$$$
No_5-gen_results/1bvr/2025-12-23-21-42-46/
     RDKit          3D

 17 17  0  0  0  0  0  0  0  0999 V2000
    5.4360  -44.2335   54.2183 C   0  0  0  0  0  0  0  0  0  0  0  0
    5.6108  -45.0515   53.2214 C   0  0  0  0  0  0  0  0  0  0  0  0
    6.4834  -46.0174   53.2777 C   0  0  0  0  0  0  0  0  0  0  0  0
    7.6344  -45.7898   52.9762 C   0  0  0  0  0  0  0  0  0  0  0  0
    5.8065  -42.8780   53.9938 C   0  0  0  0  0  0  0  0  0  0  0  0
    5.7857  -42.3637   52.8064 C   0  0  0  0  0  0  0  0  0  0  0  0
    5.4364  -43.1160   51.7697 C   0  0  0  0  0  0  0  0  0  0  0  0
    5.5006  -44.5729   51.9388 C   0  0  0  0  0  0  0  0  0  0  0  0
    5.8967  -47.3121   52.5060 C   0  0  0  0  0  0  0  0  0  0  0  0
    4.6631  -47.6150   52.4417 C   0  0  0  0  0  0  0  0  0  0  0  0
    4.0487  -48.6140   51.6767 C   0  0  0  0  0  0  0  0  0  0  0  0
    4.9344  -49.3288   50.8401 C   0  0  0  0  0  0  0  0  0  0  0  0
    6.3116  -49.0299   50.8894 C   0  0  0  0  0  0  0  0  0  0  0  0
    6.8331  -48.0596   51.6652 C   0  0  0  0  0  0  0  0  0  0  0  0
    8.0667  -47.8035   51.6792 F   0  0  0  0  0  0  0  0  0  0  0  0
    7.7054  -48.7569   51.9295 Cl  0  0  0  0  0  0  0  0  0  0  0  0
    6.3800  -48.8063   49.5039 C   0  0  0  0  0  0  0  0  0  0  0  0
  1  2  1  0
  2  3  1  0
  3  4  2  0
  1  5  1  0
  5  6  1  0
  6  7  1  0
  2  8  1  0
  7  8  1  0
  3  9  1  0
  9 10  2  3
 10 11  1  0
 11 12  2  3
 12 13  1  0
  9 14  1  0
 14 15  1  0
 14 16  1  0
 13 17  2  0
M  END

$$$$
No_6-gen_results/1bvr/2025-12-23-21-42-46/
     RDKit          3D

 17 17  0  0  0  0  0  0  0  0999 V2000
    5.4360  -44.2335   54.2183 C   0  0  0  0  0  0  0  0  0  0  0  0
    5.6108  -45.0515   53.2214 C   0  0  0  0  0  0  0  0  0  0  0  0
    6.4834  -46.0174   53.2777 C   0  0  0  0  0  0  0  0  0  0  0  0
    7.6344  -45.7898   52.9762 C   0  0  0  0  0  0  0  0  0  0  0  0
    5.8065  -42.8780   53.9938 C   0  0  0  0  0  0  0  0  0  0  0  0
    5.7857  -42.3637   52.8064 C   0  0  0  0  0  0  0  0  0  0  0  0
    5.4364  -43.1160   51.7697 C   0  0  0  0  0  0  0  0  0  0  0  0
    5.5006  -44.5729   51.9388 C   0  0  0  0  0  0  0  0  0  0  0  0
    5.8967  -47.3121   52.5060 C   0  0  0  0  0  0  0  0  0  0  0  0
    4.6631  -47.6150   52.4417 C   0  0  0  0  0  0  0  0  0  0  0  0
    4.0487  -48.6140   51.6767 C   0  0  0  0  0  0  0  0  0  0  0  0
    4.9344  -49.3288   50.8401 C   0  0  0  0  0  0  0  0  0  0  0  0
    6.3116  -49.0299   50.8894 C   0  0  0  0  0  0  0  0  0  0  0  0
    6.8331  -48.0596   51.6652 C   0  0  0  0  0  0  0  0  0  0  0  0
    8.0667  -47.8035   51.6792 F   0  0  0  0  0  0  0  0  0  0  0  0
    7.7054  -48.7569   51.9295 Cl  0  0  0  0  0  0  0  0  0  0  0  0
    6.3800  -48.8063   49.5039 C   0  0  0  0  0  0  0  0  0  0  0  0
  1  2  1  0
  2  3  1  0
  3  4  2  0
  1  5  1  0
  5  6  1  0
  6  7  1  0
  2  8  1  0
  7  8  1  0
  3  9  1  0
  9 10  2  3
 10 11  1  0
 11 12  2  3
 12 13  1  0
  9 14  1  0
 14 15  1  0
 14 16  1  0
 13 17  2  0
M  END

$$$$
No_7-gen_results/1bvr/2025-12-23-21-42-46/
     RDKit          3D

 17 17  0  0  0  0  0  0  0  0999 V2000
    5.4360  -44.2335   54.2183 C   0  0  0  0  0  0  0  0  0  0  0  0
    5.6108  -45.0515   53.2214 C   0  0  0  0  0  0  0  0  0  0  0  0
    6.4834  -46.0174   53.2777 C   0  0  0  0  0  0  0  0  0  0  0  0
    7.6344  -45.7898   52.9762 C   0  0  0  0  0  0  0  0  0  0  0  0
    5.8065  -42.8780   53.9938 C   0  0  0  0  0  0  0  0  0  0  0  0
    5.7857  -42.3637   52.8064 C   0  0  0  0  0  0  0  0  0  0  0  0
    5.4364  -43.1160   51.7697 C   0  0  0  0  0  0  0  0  0  0  0  0
    5.5006  -44.5729   51.9388 C   0  0  0  0  0  0  0  0  0  0  0  0
    5.8967  -47.3121   52.5060 C   0  0  0  0  0  0  0  0  0  0  0  0
    4.6631  -47.6150   52.4417 C   0  0  0  0  0  0  0  0  0  0  0  0
    4.0487  -48.6140   51.6767 C   0  0  0  0  0  0  0  0  0  0  0  0
    4.9344  -49.3288   50.8401 C   0  0  0  0  0  0  0  0  0  0  0  0
    6.3116  -49.0299   50.8894 C   0  0  0  0  0  0  0  0  0  0  0  0
    6.8331  -48.0596   51.6652 C   0  0  0  0  0  0  0  0  0  0  0  0
    8.0667  -47.8035   51.6792 F   0  0  0  0  0  0  0  0  0  0  0  0
    7.7054  -48.7569   51.9295 Cl  0  0  0  0  0  0  0  0  0  0  0  0
    6.3800  -48.8063   49.5039 C   0  0  0  0  0  0  0  0  0  0  0  0
  1  2  1  0
  2  3  1  0
  3  4  2  0
  1  5  1  0
  5  6  1  0
  6  7  1  0
  2  8  1  0
  7  8  1  0
  3  9  1  0
  9 10  2  3
 10 11  1  0
 11 12  2  3
 12 13  1  0
  9 14  1  0
 14 15  1  0
 14 16  1  0
 13 17  2  0
M  END

$$$$
No_8-gen_results/1bvr/2025-12-23-21-42-46/
     RDKit          3D

 20 20  0  0  0  0  0  0  0  0999 V2000
    5.4360  -44.2335   54.2183 C   0  0  0  0  0  0  0  0  0  0  0  0
    5.6108  -45.0515   53.2214 C   0  0  0  0  0  0  0  0  0  0  0  0
    6.1793  -44.6325   52.1418 C   0  0  0  0  0  0  0  0  0  0  0  0
    5.9858  -42.8842   54.2811 C   0  0  0  0  0  0  0  0  0  0  0  0
    6.6350  -42.4858   53.1434 C   0  0  0  0  0  0  0  0  0  0  0  0
    6.7835  -43.3258   52.0896 C   0  0  0  0  0  0  0  0  0  0  0  0
    6.3900  -45.5022   50.9264 C   0  0  0  0  0  0  0  0  0  0  0  0
    5.9829  -45.1873   49.8364 C   0  0  0  0  0  0  0  0  0  0  0  0
    5.2380  -44.0180   49.5739 C   0  0  0  0  0  0  0  0  0  0  0  0
    4.1390  -43.7948   50.3744 C   0  0  0  0  0  0  0  0  0  0  0  0
    3.8714  -44.3235   51.5359 C   0  0  0  0  0  0  0  0  0  0  0  0
    2.7448  -43.8233   52.3552 C   0  0  0  0  0  0  0  0  0  0  0  0
    6.0503  -46.3734   53.8444 O   0  0  0  0  0  0  0  0  0  0  0  0
    7.2497  -41.1229   53.2378 C   0  0  0  0  0  0  0  0  0  0  0  0
    6.4446  -40.0106   53.5468 C   0  0  0  0  0  0  0  0  0  0  0  0
    5.1688  -39.7905   53.1887 C   0  0  0  0  0  0  0  0  0  0  0  0
    4.6765  -40.3175   52.1035 N   0  0  0  0  0  0  0  0  0  0  0  0
    3.1967  -42.8563   53.4304 C   0  0  0  0  0  0  0  0  0  0  0  0
    5.2154  -40.1859   50.9483 C   0  0  0  0  0  0  0  0  0  0  0  0
    4.5496  -40.7621   49.9019 N   0  0  0  0  0  0  0  0  0  0  0  0
  3  7  1  0
  7  8  1  0
  8  9  1  0
  9 10  2  3
 10 11  1  0
 11 12  1  0
  2 13  1  0
  5 14  1  0
 14 15  1  0
 15 16  1  0
 16 17  2  3
 12 18  1  0
 17 19  1  0
 19 20  2  0
  1  2  2  0
  2  3  1  0
  3  6  2  0
  6  5  1  0
  5  4  2  0
  4  1  1  0
M  END

$$$$
No_9-gen_results/1bvr/2025-12-23-21-42-46/
     RDKit          3D

 16 17  0  0  0  0  0  0  0  0999 V2000
    5.3038  -45.9017   53.1807 C   0  0  0  0  0  0  0  0  0  0  0  0
    5.8547  -44.8721   53.3220 C   0  0  0  0  0  0  0  0  0  0  0  0
    5.3276  -46.5740   52.0123 C   0  0  0  0  0  0  0  0  0  0  0  0
    6.6655  -44.2321   52.4044 C   0  0  0  0  0  0  0  0  0  0  0  0
    6.0632  -46.0445   50.9775 C   0  0  0  0  0  0  0  0  0  0  0  0
    6.7643  -44.8574   51.2084 C   0  0  0  0  0  0  0  0  0  0  0  0
    4.5248  -47.8369   51.7917 C   0  0  0  0  0  0  0  0  0  0  0  0
    4.5620  -47.7968   50.3066 Br  0  0  0  0  0  0  0  0  0  0  0  0
    7.4781  -42.9828   52.7718 C   0  0  0  0  0  0  0  0  0  0  0  0
    6.7993  -41.7550   52.9564 C   0  0  0  0  0  0  0  0  0  0  0  0
    7.4415  -40.5578   52.8790 C   0  0  0  0  0  0  0  0  0  0  0  0
    6.8010  -39.3085   53.1698 C   0  0  0  0  0  0  0  0  0  0  0  0
    5.3957  -39.4158   53.4933 C   0  0  0  0  0  0  0  0  0  0  0  0
    4.6984  -40.5821   53.4388 C   0  0  0  0  0  0  0  0  0  0  0  0
    5.4047  -41.7530   53.2639 C   0  0  0  0  0  0  0  0  0  0  0  0
    8.9178  -43.0638   52.8759 C   0  0  0  0  0  0  0  0  0  0  0  0
  3  7  1  0
  7  8  1  0
  4  9  1  0
  9 10  1  0
  9 16  1  0
  1  2  2  0
  2  4  1  0
  4  6  2  0
  6  5  1  0
  5  3  2  0
  3  1  1  0
 10 11  2  0
 11 12  1  0
 12 13  2  0
 13 14  1  0
 14 15  2  0
 15 10  1  0
M  END

$$$$
